LTspice 26.0.1 for Windows
Circuit: C:\Users\12092\Desktop\.lyz\电赛选拔赛\硬件部分\LTspices仿真\boost_DC-DC.net
Start Time: Sun May 24 02:04:36 2026
solver = Normal
Maximum thread count: 22
tnom = 27
temp = 27
method = trap
Direct Newton iteration succeeded in finding operating point.
Total elapsed time: 8.322 seconds.

Files loaded:
C:\Users\12092\Desktop\.lyz\电赛选拔赛\硬件部分\LTspices仿真\boost_DC-DC.net
C:\Users\12092\AppData\Local\LTspice\lib\cmp\standard.dio
C:\Users\12092\AppData\Local\LTspice\lib\cmp\standard.mos
C:\Users\12092\AppData\Local\LTspice\lib\sub\LTC.lib

